data_MoS2_mp-2815_primitive\(0\0\1)
_audit_creation_date              2021-09-09
_audit_creation_method            'Materials Studio'
_symmetry_space_group_name_H-M    'P1'
_symmetry_Int_Tables_number       1
_symmetry_cell_setting            triclinic
loop_
_symmetry_equiv_pos_as_xyz
  x,y,z
_cell_length_a                    3.2003
_cell_length_b                    3.2003
_cell_length_c                    18.0000
_cell_angle_alpha                 90.0000
_cell_angle_beta                  90.0000
_cell_angle_gamma                 120.0000
loop_
_atom_site_label
_atom_site_type_symbol
_atom_site_fract_x
_atom_site_fract_y
_atom_site_fract_z
_atom_site_U_iso_or_equiv
_atom_site_adp_type
_atom_site_occupancy
Mo1    Mo    0.666744489       0.333255510       0.141528151   0.00000  Uiso   1.00
S3     S     0.333312692       0.666687308       0.052778750   0.00000  Uiso   1.00
S5     S     0.333303295       0.666696707       0.230252647   0.00000  Uiso   1.00
loop_
_geom_bond_atom_site_label_1
_geom_bond_atom_site_label_2
_geom_bond_distance
_geom_bond_site_symmetry_2
_ccdc_geom_bond_type
Mo1    S3      2.417   1_545 S
Mo1    S3      2.417   1_655 S
Mo1    S5      2.417   .     S
Mo1    S5      2.417   1_655 S
Mo1    S5      2.417   1_545 S
S3     Mo1     2.417   1_565 S
S3     Mo1     2.417   1_455 S
S5     Mo1     2.417   1_455 S
S5     Mo1     2.417   1_565 S
