data_BN_mp-984_primitive\(0\0\1)
_audit_creation_date              2021-09-09
_audit_creation_method            'Materials Studio'
_symmetry_space_group_name_H-M    'P1'
_symmetry_Int_Tables_number       1
_symmetry_cell_setting            triclinic
loop_
_symmetry_equiv_pos_as_xyz
  x,y,z
_cell_length_a                    2.5124
_cell_length_b                    2.5124
_cell_length_c                    12.0000
_cell_angle_alpha                 90.0000
_cell_angle_beta                  90.0000
_cell_angle_gamma                 120.0000
loop_
_atom_site_label
_atom_site_type_symbol
_atom_site_fract_x
_atom_site_fract_y
_atom_site_fract_z
_atom_site_U_iso_or_equiv
_atom_site_adp_type
_atom_site_occupancy
B0     B     0.666873642       0.333126360       0.200012069   0.00000  Uiso   1.00
N3     N     0.333122260       0.666877738       0.199982091   0.00000  Uiso   1.00
loop_
_geom_bond_atom_site_label_1
_geom_bond_atom_site_label_2
_geom_bond_distance
_geom_bond_site_symmetry_2
_ccdc_geom_bond_type
B0     N3      1.451   .     S
B0     N3      1.451   1_655 S
B0     N3      1.451   1_545 S
N3     B0      1.451   1_455 S
N3     B0      1.451   1_565 S
